Version 4
SHEET 1 880 680
WIRE -240 -64 -288 -64
WIRE -128 -64 -160 -64
WIRE -32 -64 -128 -64
WIRE 32 -64 -32 -64
WIRE 112 -16 96 -16
WIRE -128 80 -128 -64
WIRE 32 80 32 32
WIRE -288 96 -288 -64
WIRE 32 192 32 160
WIRE -288 272 -288 176
WIRE -128 272 -128 144
WIRE -128 272 -288 272
WIRE 32 272 32 256
WIRE 32 272 -128 272
WIRE -128 304 -128 272
FLAG -128 304 0
FLAG -32 -64 Vc
SYMBOL cap -144 80 R0
SYMATTR InstName C1
SYMATTR Value 470µ
SYMBOL LED 16 192 R0
SYMATTR InstName LED
SYMATTR Value W5AP-LZMZ-5K8L
SYMBOL Misc\\battery -288 80 R0
SYMATTR InstName V1
SYMATTR Value 12
SYMBOL res -144 -80 R90
WINDOW 0 0 56 VBottom 2
WINDOW 3 32 56 VTop 2
SYMATTR InstName R1
SYMATTR Value 1k
SYMBOL res 16 64 R0
SYMATTR InstName R2
SYMATTR Value 100
SYMBOL ZZZ\\Avalanche\\NPN_Avalanche 64 -16 R180
SYMATTR InstName NPN_avlanche
TEXT -320 360 Left 2 !.tran 3
